<?xml version='1.0' encoding='utf-8'?>
<routes>

  
<vTypeDistribution id="civilianMix">
    <vType id="moto" vClass="motorcycle" accel="2.6" decel="4.5" length="1.9" minGap="1.0" maxSpeed="16.0" sigma="0.5" speedFactor="normc(1.0,0.12,0.7,1.3)" color="0,255,0" probability="0.48750000000000004" />
    <vType id="car" vClass="passenger" accel="2.6" decel="4.5" length="4.5" minGap="2.5" maxSpeed="20.0" sigma="0.5" speedFactor="normc(1.0,0.10,0.7,1.3)" color="255,0,0" probability="0.15000000000000002" />
    <vType id="truck" vClass="truck" accel="1.3" decel="3.0" length="7.5" minGap="3.0" maxSpeed="16.0" sigma="0.6" speedFactor="normc(0.95,0.08,0.7,1.2)" color="255,165,0" probability="0.052500000000000005" />
    <vType id="bus" vClass="bus" accel="1.2" decel="3.0" length="12.0" minGap="3.0" maxSpeed="16.0" sigma="0.6" speedFactor="normc(0.95,0.08,0.7,1.2)" color="0,128,255" probability="0.037500000000000006" />
    <vType id="container" vClass="truck" accel="0.9" decel="2.5" length="14.0" minGap="3.5" maxSpeed="14.0" sigma="0.7" speedFactor="normc(0.9,0.07,0.7,1.15)" color="128,64,0" probability="0.0225" />
  </vTypeDistribution>

  
  <vType id="fire" vClass="emergency" accel="2.8" decel="5.0" length="7.0" minGap="2.5" maxSpeed="25.0" sigma="0.3" speedFactor="normc(1.10,0.05,0.90,1.30)" color="255,100,0" />
  <vType id="military" vClass="emergency" accel="2.2" decel="4.0" length="7.5" minGap="3.0" maxSpeed="22.0" sigma="0.3" speedFactor="normc(1.05,0.05,0.90,1.20)" color="0,128,0" />
  <vType id="police" vClass="emergency" accel="2.8" decel="5.0" length="4.8" minGap="2.0" maxSpeed="25.0" sigma="0.3" speedFactor="normc(1.05,0.05,0.90,1.20)" color="0,0,255" />
  <vType id="ambulance" vClass="emergency" accel="2.8" decel="5.0" length="5.0" minGap="2.0" maxSpeed="25.0" sigma="0.3" speedFactor="normc(1.05,0.05,0.90,1.20)" color="255,0,0" />

  
  
  
  
<route id="r_N_to_S" edges="N_in S_out" />  
  <route id="r_N_to_E" edges="N_in E_out" />  
  <route id="r_N_to_W" edges="N_in W_out" />  
  <route id="r_N_to_N" edges="N_in N_out" />  

  
  <route id="r_S_to_N" edges="S_in N_out" />
  <route id="r_S_to_W" edges="S_in W_out" />
  <route id="r_S_to_E" edges="S_in E_out" />
  <route id="r_S_to_S" edges="S_in S_out" />  

  
  <route id="r_E_to_W" edges="E_in W_out" />
  <route id="r_E_to_S" edges="E_in S_out" />
  <route id="r_E_to_N" edges="E_in N_out" />
  <route id="r_E_to_E" edges="E_in E_out" />  

  
  <route id="r_W_to_E" edges="W_in E_out" />
  <route id="r_W_to_N" edges="W_in N_out" />
  <route id="r_W_to_S" edges="W_in S_out" />
  <route id="r_W_to_W" edges="W_in W_out" />  

  
  
  
  
  <flow id="morn5_21600_21900_N_straight" type="civilianMix" route="r_N_to_S" begin="21600" end="21900" probability="0.0102864375" departLane="random" departSpeed="random" departPos="random_free" />
  <flow id="morn5_21600_21900_N_left" type="civilianMix" route="r_N_to_E" begin="21600" end="21900" probability="0.004114593749999999" departLane="random" departSpeed="random" departPos="random_free" />
  <flow id="morn5_21600_21900_N_right" type="civilianMix" route="r_N_to_W" begin="21600" end="21900" probability="0.004114593749999999" departLane="random" departSpeed="random" departPos="random_free" />
  <flow id="morn5_21600_21900_N_uturn" type="civilianMix" route="r_N_to_N" begin="21600" end="21900" probability="0.00197915625" departLane="random" departSpeed="random" departPos="random_free" />
  <flow id="morn5_21600_21900_S_straight" type="civilianMix" route="r_S_to_N" begin="21600" end="21900" probability="0.0102864375" departLane="random" departSpeed="random" departPos="random_free" />
  <flow id="morn5_21600_21900_S_left" type="civilianMix" route="r_S_to_W" begin="21600" end="21900" probability="0.004114593749999999" departLane="random" departSpeed="random" departPos="random_free" />
  <flow id="morn5_21600_21900_S_right" type="civilianMix" route="r_S_to_E" begin="21600" end="21900" probability="0.004114593749999999" departLane="random" departSpeed="random" departPos="random_free" />
  <flow id="morn5_21600_21900_S_uturn" type="civilianMix" route="r_S_to_S" begin="21600" end="21900" probability="0.00197915625" departLane="random" departSpeed="random" departPos="random_free" />
  <flow id="morn5_21600_21900_E_straight" type="civilianMix" route="r_E_to_W" begin="21600" end="21900" probability="0.0101041875" departLane="random" departSpeed="random" departPos="random_free" />
  <flow id="morn5_21600_21900_E_left" type="civilianMix" route="r_E_to_S" begin="21600" end="21900" probability="0.00406246875" departLane="random" departSpeed="random" departPos="random_free" />
  <flow id="morn5_21600_21900_E_right" type="civilianMix" route="r_E_to_N" begin="21600" end="21900" probability="0.00406246875" departLane="random" departSpeed="random" departPos="random_free" />
  <flow id="morn5_21600_21900_E_uturn" type="civilianMix" route="r_E_to_E" begin="21600" end="21900" probability="0.00195309375" departLane="random" departSpeed="random" departPos="random_free" />
  <flow id="morn5_21600_21900_W_straight" type="civilianMix" route="r_W_to_E" begin="21600" end="21900" probability="0.0101041875" departLane="random" departSpeed="random" departPos="random_free" />
  <flow id="morn5_21600_21900_W_left" type="civilianMix" route="r_W_to_N" begin="21600" end="21900" probability="0.00406246875" departLane="random" departSpeed="random" departPos="random_free" />
  <flow id="morn5_21600_21900_W_right" type="civilianMix" route="r_W_to_S" begin="21600" end="21900" probability="0.00406246875" departLane="random" departSpeed="random" departPos="random_free" />
  <flow id="morn5_21600_21900_W_uturn" type="civilianMix" route="r_W_to_W" begin="21600" end="21900" probability="0.00195309375" departLane="random" departSpeed="random" departPos="random_free" />
  <flow id="morn5_21900_22200_N_straight" type="civilianMix" route="r_N_to_S" begin="21900" end="22200" probability="0.01210940625" departLane="random" departSpeed="random" departPos="random_free" />
  <flow id="morn5_21900_22200_N_left" type="civilianMix" route="r_N_to_E" begin="21900" end="22200" probability="0.00484378125" departLane="random" departSpeed="random" departPos="random_free" />
  <flow id="morn5_21900_22200_N_right" type="civilianMix" route="r_N_to_W" begin="21900" end="22200" probability="0.00484378125" departLane="random" departSpeed="random" departPos="random_free" />
  <flow id="morn5_21900_22200_N_uturn" type="civilianMix" route="r_N_to_N" begin="21900" end="22200" probability="0.00218746875" departLane="random" departSpeed="random" departPos="random_free" />
  <flow id="morn5_21900_22200_S_straight" type="civilianMix" route="r_S_to_N" begin="21900" end="22200" probability="0.01210940625" departLane="random" departSpeed="random" departPos="random_free" />
  <flow id="morn5_21900_22200_S_left" type="civilianMix" route="r_S_to_W" begin="21900" end="22200" probability="0.00484378125" departLane="random" departSpeed="random" departPos="random_free" />
  <flow id="morn5_21900_22200_S_right" type="civilianMix" route="r_S_to_E" begin="21900" end="22200" probability="0.00484378125" departLane="random" departSpeed="random" departPos="random_free" />
  <flow id="morn5_21900_22200_S_uturn" type="civilianMix" route="r_S_to_S" begin="21900" end="22200" probability="0.00218746875" departLane="random" departSpeed="random" departPos="random_free" />
  <flow id="morn5_21900_22200_E_straight" type="civilianMix" route="r_E_to_W" begin="21900" end="22200" probability="0.011562468749999999" departLane="random" departSpeed="random" departPos="random_free" />
  <flow id="morn5_21900_22200_E_left" type="civilianMix" route="r_E_to_S" begin="21900" end="22200" probability="0.004687500000000001" departLane="random" departSpeed="random" departPos="random_free" />
  <flow id="morn5_21900_22200_E_right" type="civilianMix" route="r_E_to_N" begin="21900" end="22200" probability="0.004687500000000001" departLane="random" departSpeed="random" departPos="random_free" />
  <flow id="morn5_21900_22200_E_uturn" type="civilianMix" route="r_E_to_E" begin="21900" end="22200" probability="0.002109375" departLane="random" departSpeed="random" departPos="random_free" />
  <flow id="morn5_21900_22200_W_straight" type="civilianMix" route="r_W_to_E" begin="21900" end="22200" probability="0.011562468749999999" departLane="random" departSpeed="random" departPos="random_free" />
  <flow id="morn5_21900_22200_W_left" type="civilianMix" route="r_W_to_N" begin="21900" end="22200" probability="0.004687500000000001" departLane="random" departSpeed="random" departPos="random_free" />
  <flow id="morn5_21900_22200_W_right" type="civilianMix" route="r_W_to_S" begin="21900" end="22200" probability="0.004687500000000001" departLane="random" departSpeed="random" departPos="random_free" />
  <flow id="morn5_21900_22200_W_uturn" type="civilianMix" route="r_W_to_W" begin="21900" end="22200" probability="0.002109375" departLane="random" departSpeed="random" departPos="random_free" />
  <flow id="morn5_22200_22500_N_straight" type="civilianMix" route="r_N_to_S" begin="22200" end="22500" probability="0.01393228125" departLane="random" departSpeed="random" departPos="random_free" />
  <flow id="morn5_22200_22500_N_left" type="civilianMix" route="r_N_to_E" begin="22200" end="22500" probability="0.005572875" departLane="random" departSpeed="random" departPos="random_free" />
  <flow id="morn5_22200_22500_N_right" type="civilianMix" route="r_N_to_W" begin="22200" end="22500" probability="0.005572875" departLane="random" departSpeed="random" departPos="random_free" />
  <flow id="morn5_22200_22500_N_uturn" type="civilianMix" route="r_N_to_N" begin="22200" end="22500" probability="0.002395875" departLane="random" departSpeed="random" departPos="random_free" />
  <flow id="morn5_22200_22500_S_straight" type="civilianMix" route="r_S_to_N" begin="22200" end="22500" probability="0.01393228125" departLane="random" departSpeed="random" departPos="random_free" />
  <flow id="morn5_22200_22500_S_left" type="civilianMix" route="r_S_to_W" begin="22200" end="22500" probability="0.005572875" departLane="random" departSpeed="random" departPos="random_free" />
  <flow id="morn5_22200_22500_S_right" type="civilianMix" route="r_S_to_E" begin="22200" end="22500" probability="0.005572875" departLane="random" departSpeed="random" departPos="random_free" />
  <flow id="morn5_22200_22500_S_uturn" type="civilianMix" route="r_S_to_S" begin="22200" end="22500" probability="0.002395875" departLane="random" departSpeed="random" departPos="random_free" />
  <flow id="morn5_22200_22500_E_straight" type="civilianMix" route="r_E_to_W" begin="22200" end="22500" probability="0.01302084375" departLane="random" departSpeed="random" departPos="random_free" />
  <flow id="morn5_22200_22500_E_left" type="civilianMix" route="r_E_to_S" begin="22200" end="22500" probability="0.00531253125" departLane="random" departSpeed="random" departPos="random_free" />
  <flow id="morn5_22200_22500_E_right" type="civilianMix" route="r_E_to_N" begin="22200" end="22500" probability="0.00531253125" departLane="random" departSpeed="random" departPos="random_free" />
  <flow id="morn5_22200_22500_E_uturn" type="civilianMix" route="r_E_to_E" begin="22200" end="22500" probability="0.0022656562500000003" departLane="random" departSpeed="random" departPos="random_free" />
  <flow id="morn5_22200_22500_W_straight" type="civilianMix" route="r_W_to_E" begin="22200" end="22500" probability="0.01302084375" departLane="random" departSpeed="random" departPos="random_free" />
  <flow id="morn5_22200_22500_W_left" type="civilianMix" route="r_W_to_N" begin="22200" end="22500" probability="0.00531253125" departLane="random" departSpeed="random" departPos="random_free" />
  <flow id="morn5_22200_22500_W_right" type="civilianMix" route="r_W_to_S" begin="22200" end="22500" probability="0.00531253125" departLane="random" departSpeed="random" departPos="random_free" />
  <flow id="morn5_22200_22500_W_uturn" type="civilianMix" route="r_W_to_W" begin="22200" end="22500" probability="0.0022656562500000003" departLane="random" departSpeed="random" departPos="random_free" />
  <flow id="morn5_22500_22800_N_straight" type="civilianMix" route="r_N_to_S" begin="22500" end="22800" probability="0.015755250000000002" departLane="random" departSpeed="random" departPos="random_free" />
  <flow id="morn5_22500_22800_N_left" type="civilianMix" route="r_N_to_E" begin="22500" end="22800" probability="0.0063020625" departLane="random" departSpeed="random" departPos="random_free" />
  <flow id="morn5_22500_22800_N_right" type="civilianMix" route="r_N_to_W" begin="22500" end="22800" probability="0.0063020625" departLane="random" departSpeed="random" departPos="random_free" />
  <flow id="morn5_22500_22800_N_uturn" type="civilianMix" route="r_N_to_N" begin="22500" end="22800" probability="0.0026041875" departLane="random" departSpeed="random" departPos="random_free" />
  <flow id="morn5_22500_22800_S_straight" type="civilianMix" route="r_S_to_N" begin="22500" end="22800" probability="0.015755250000000002" departLane="random" departSpeed="random" departPos="random_free" />
  <flow id="morn5_22500_22800_S_left" type="civilianMix" route="r_S_to_W" begin="22500" end="22800" probability="0.0063020625" departLane="random" departSpeed="random" departPos="random_free" />
  <flow id="morn5_22500_22800_S_right" type="civilianMix" route="r_S_to_E" begin="22500" end="22800" probability="0.0063020625" departLane="random" departSpeed="random" departPos="random_free" />
  <flow id="morn5_22500_22800_S_uturn" type="civilianMix" route="r_S_to_S" begin="22500" end="22800" probability="0.0026041875" departLane="random" departSpeed="random" departPos="random_free" />
  <flow id="morn5_22500_22800_E_straight" type="civilianMix" route="r_E_to_W" begin="22500" end="22800" probability="0.014479124999999999" departLane="random" departSpeed="random" departPos="random_free" />
  <flow id="morn5_22500_22800_E_left" type="civilianMix" route="r_E_to_S" begin="22500" end="22800" probability="0.00593746875" departLane="random" departSpeed="random" departPos="random_free" />
  <flow id="morn5_22500_22800_E_right" type="civilianMix" route="r_E_to_N" begin="22500" end="22800" probability="0.00593746875" departLane="random" departSpeed="random" departPos="random_free" />
  <flow id="morn5_22500_22800_E_uturn" type="civilianMix" route="r_E_to_E" begin="22500" end="22800" probability="0.00242184375" departLane="random" departSpeed="random" departPos="random_free" />
  <flow id="morn5_22500_22800_W_straight" type="civilianMix" route="r_W_to_E" begin="22500" end="22800" probability="0.014479124999999999" departLane="random" departSpeed="random" departPos="random_free" />
  <flow id="morn5_22500_22800_W_left" type="civilianMix" route="r_W_to_N" begin="22500" end="22800" probability="0.00593746875" departLane="random" departSpeed="random" departPos="random_free" />
  <flow id="morn5_22500_22800_W_right" type="civilianMix" route="r_W_to_S" begin="22500" end="22800" probability="0.00593746875" departLane="random" departSpeed="random" departPos="random_free" />
  <flow id="morn5_22500_22800_W_uturn" type="civilianMix" route="r_W_to_W" begin="22500" end="22800" probability="0.00242184375" departLane="random" departSpeed="random" departPos="random_free" />
  <flow id="morn5_22800_23100_N_straight" type="civilianMix" route="r_N_to_S" begin="22800" end="23100" probability="0.017578125" departLane="random" departSpeed="random" departPos="random_free" />
  <flow id="morn5_22800_23100_N_left" type="civilianMix" route="r_N_to_E" begin="22800" end="23100" probability="0.007031249999999999" departLane="random" departSpeed="random" departPos="random_free" />
  <flow id="morn5_22800_23100_N_right" type="civilianMix" route="r_N_to_W" begin="22800" end="23100" probability="0.007031249999999999" departLane="random" departSpeed="random" departPos="random_free" />
  <flow id="morn5_22800_23100_N_uturn" type="civilianMix" route="r_N_to_N" begin="22800" end="23100" probability="0.0028125" departLane="random" departSpeed="random" departPos="random_free" />
  <flow id="morn5_22800_23100_S_straight" type="civilianMix" route="r_S_to_N" begin="22800" end="23100" probability="0.017578125" departLane="random" departSpeed="random" departPos="random_free" />
  <flow id="morn5_22800_23100_S_left" type="civilianMix" route="r_S_to_W" begin="22800" end="23100" probability="0.007031249999999999" departLane="random" departSpeed="random" departPos="random_free" />
  <flow id="morn5_22800_23100_S_right" type="civilianMix" route="r_S_to_E" begin="22800" end="23100" probability="0.007031249999999999" departLane="random" departSpeed="random" departPos="random_free" />
  <flow id="morn5_22800_23100_S_uturn" type="civilianMix" route="r_S_to_S" begin="22800" end="23100" probability="0.0028125" departLane="random" departSpeed="random" departPos="random_free" />
  <flow id="morn5_22800_23100_E_straight" type="civilianMix" route="r_E_to_W" begin="22800" end="23100" probability="0.0159375" departLane="random" departSpeed="random" departPos="random_free" />
  <flow id="morn5_22800_23100_E_left" type="civilianMix" route="r_E_to_S" begin="22800" end="23100" probability="0.006562500000000001" departLane="random" departSpeed="random" departPos="random_free" />
  <flow id="morn5_22800_23100_E_right" type="civilianMix" route="r_E_to_N" begin="22800" end="23100" probability="0.006562500000000001" departLane="random" departSpeed="random" departPos="random_free" />
  <flow id="morn5_22800_23100_E_uturn" type="civilianMix" route="r_E_to_E" begin="22800" end="23100" probability="0.002578125" departLane="random" departSpeed="random" departPos="random_free" />
  <flow id="morn5_22800_23100_W_straight" type="civilianMix" route="r_W_to_E" begin="22800" end="23100" probability="0.0159375" departLane="random" departSpeed="random" departPos="random_free" />
  <flow id="morn5_22800_23100_W_left" type="civilianMix" route="r_W_to_N" begin="22800" end="23100" probability="0.006562500000000001" departLane="random" departSpeed="random" departPos="random_free" />
  <flow id="morn5_22800_23100_W_right" type="civilianMix" route="r_W_to_S" begin="22800" end="23100" probability="0.006562500000000001" departLane="random" departSpeed="random" departPos="random_free" />
  <flow id="morn5_22800_23100_W_uturn" type="civilianMix" route="r_W_to_W" begin="22800" end="23100" probability="0.002578125" departLane="random" departSpeed="random" departPos="random_free" />
  <flow id="morn5_23100_23400_N_straight" type="civilianMix" route="r_N_to_S" begin="23100" end="23400" probability="0.019400999999999998" departLane="random" departSpeed="random" departPos="random_free" />
  <flow id="morn5_23100_23400_N_left" type="civilianMix" route="r_N_to_E" begin="23100" end="23400" probability="0.0077604375" departLane="random" departSpeed="random" departPos="random_free" />
  <flow id="morn5_23100_23400_N_right" type="civilianMix" route="r_N_to_W" begin="23100" end="23400" probability="0.0077604375" departLane="random" departSpeed="random" departPos="random_free" />
  <flow id="morn5_23100_23400_N_uturn" type="civilianMix" route="r_N_to_N" begin="23100" end="23400" probability="0.0030208125" departLane="random" departSpeed="random" departPos="random_free" />
  <flow id="morn5_23100_23400_S_straight" type="civilianMix" route="r_S_to_N" begin="23100" end="23400" probability="0.019400999999999998" departLane="random" departSpeed="random" departPos="random_free" />
  <flow id="morn5_23100_23400_S_left" type="civilianMix" route="r_S_to_W" begin="23100" end="23400" probability="0.0077604375" departLane="random" departSpeed="random" departPos="random_free" />
  <flow id="morn5_23100_23400_S_right" type="civilianMix" route="r_S_to_E" begin="23100" end="23400" probability="0.0077604375" departLane="random" departSpeed="random" departPos="random_free" />
  <flow id="morn5_23100_23400_S_uturn" type="civilianMix" route="r_S_to_S" begin="23100" end="23400" probability="0.0030208125" departLane="random" departSpeed="random" departPos="random_free" />
  <flow id="morn5_23100_23400_E_straight" type="civilianMix" route="r_E_to_W" begin="23100" end="23400" probability="0.017395874999999998" departLane="random" departSpeed="random" departPos="random_free" />
  <flow id="morn5_23100_23400_E_left" type="civilianMix" route="r_E_to_S" begin="23100" end="23400" probability="0.00718753125" departLane="random" departSpeed="random" departPos="random_free" />
  <flow id="morn5_23100_23400_E_right" type="civilianMix" route="r_E_to_N" begin="23100" end="23400" probability="0.00718753125" departLane="random" departSpeed="random" departPos="random_free" />
  <flow id="morn5_23100_23400_E_uturn" type="civilianMix" route="r_E_to_E" begin="23100" end="23400" probability="0.00273440625" departLane="random" departSpeed="random" departPos="random_free" />
  <flow id="morn5_23100_23400_W_straight" type="civilianMix" route="r_W_to_E" begin="23100" end="23400" probability="0.017395874999999998" departLane="random" departSpeed="random" departPos="random_free" />
  <flow id="morn5_23100_23400_W_left" type="civilianMix" route="r_W_to_N" begin="23100" end="23400" probability="0.00718753125" departLane="random" departSpeed="random" departPos="random_free" />
  <flow id="morn5_23100_23400_W_right" type="civilianMix" route="r_W_to_S" begin="23100" end="23400" probability="0.00718753125" departLane="random" departSpeed="random" departPos="random_free" />
  <flow id="morn5_23100_23400_W_uturn" type="civilianMix" route="r_W_to_W" begin="23100" end="23400" probability="0.00273440625" departLane="random" departSpeed="random" departPos="random_free" />
  <flow id="morn5_23400_23700_N_straight" type="civilianMix" route="r_N_to_S" begin="23400" end="23700" probability="0.021223968750000002" departLane="random" departSpeed="random" departPos="random_free" />
  <flow id="morn5_23400_23700_N_left" type="civilianMix" route="r_N_to_E" begin="23400" end="23700" probability="0.008489625" departLane="random" departSpeed="random" departPos="random_free" />
  <flow id="morn5_23400_23700_N_right" type="civilianMix" route="r_N_to_W" begin="23400" end="23700" probability="0.008489625" departLane="random" departSpeed="random" departPos="random_free" />
  <flow id="morn5_23400_23700_N_uturn" type="civilianMix" route="r_N_to_N" begin="23400" end="23700" probability="0.0032291250000000002" departLane="random" departSpeed="random" departPos="random_free" />
  <flow id="morn5_23400_23700_S_straight" type="civilianMix" route="r_S_to_N" begin="23400" end="23700" probability="0.021223968750000002" departLane="random" departSpeed="random" departPos="random_free" />
  <flow id="morn5_23400_23700_S_left" type="civilianMix" route="r_S_to_W" begin="23400" end="23700" probability="0.008489625" departLane="random" departSpeed="random" departPos="random_free" />
  <flow id="morn5_23400_23700_S_right" type="civilianMix" route="r_S_to_E" begin="23400" end="23700" probability="0.008489625" departLane="random" departSpeed="random" departPos="random_free" />
  <flow id="morn5_23400_23700_S_uturn" type="civilianMix" route="r_S_to_S" begin="23400" end="23700" probability="0.0032291250000000002" departLane="random" departSpeed="random" departPos="random_free" />
  <flow id="morn5_23400_23700_E_straight" type="civilianMix" route="r_E_to_W" begin="23400" end="23700" probability="0.01885415625" departLane="random" departSpeed="random" departPos="random_free" />
  <flow id="morn5_23400_23700_E_left" type="civilianMix" route="r_E_to_S" begin="23400" end="23700" probability="0.007812468750000001" departLane="random" departSpeed="random" departPos="random_free" />
  <flow id="morn5_23400_23700_E_right" type="civilianMix" route="r_E_to_N" begin="23400" end="23700" probability="0.007812468750000001" departLane="random" departSpeed="random" departPos="random_free" />
  <flow id="morn5_23400_23700_E_uturn" type="civilianMix" route="r_E_to_E" begin="23400" end="23700" probability="0.00289059375" departLane="random" departSpeed="random" departPos="random_free" />
  <flow id="morn5_23400_23700_W_straight" type="civilianMix" route="r_W_to_E" begin="23400" end="23700" probability="0.01885415625" departLane="random" departSpeed="random" departPos="random_free" />
  <flow id="morn5_23400_23700_W_left" type="civilianMix" route="r_W_to_N" begin="23400" end="23700" probability="0.007812468750000001" departLane="random" departSpeed="random" departPos="random_free" />
  <flow id="morn5_23400_23700_W_right" type="civilianMix" route="r_W_to_S" begin="23400" end="23700" probability="0.007812468750000001" departLane="random" departSpeed="random" departPos="random_free" />
  <flow id="morn5_23400_23700_W_uturn" type="civilianMix" route="r_W_to_W" begin="23400" end="23700" probability="0.00289059375" departLane="random" departSpeed="random" departPos="random_free" />
  <flow id="morn5_23700_24000_N_straight" type="civilianMix" route="r_N_to_S" begin="23700" end="24000" probability="0.02304684375" departLane="random" departSpeed="random" departPos="random_free" />
  <flow id="morn5_23700_24000_N_left" type="civilianMix" route="r_N_to_E" begin="23700" end="24000" probability="0.00921871875" departLane="random" departSpeed="random" departPos="random_free" />
  <flow id="morn5_23700_24000_N_right" type="civilianMix" route="r_N_to_W" begin="23700" end="24000" probability="0.00921871875" departLane="random" departSpeed="random" departPos="random_free" />
  <flow id="morn5_23700_24000_N_uturn" type="civilianMix" route="r_N_to_N" begin="23700" end="24000" probability="0.0034375312499999996" departLane="random" departSpeed="random" departPos="random_free" />
  <flow id="morn5_23700_24000_S_straight" type="civilianMix" route="r_S_to_N" begin="23700" end="24000" probability="0.02304684375" departLane="random" departSpeed="random" departPos="random_free" />
  <flow id="morn5_23700_24000_S_left" type="civilianMix" route="r_S_to_W" begin="23700" end="24000" probability="0.00921871875" departLane="random" departSpeed="random" departPos="random_free" />
  <flow id="morn5_23700_24000_S_right" type="civilianMix" route="r_S_to_E" begin="23700" end="24000" probability="0.00921871875" departLane="random" departSpeed="random" departPos="random_free" />
  <flow id="morn5_23700_24000_S_uturn" type="civilianMix" route="r_S_to_S" begin="23700" end="24000" probability="0.0034375312499999996" departLane="random" departSpeed="random" departPos="random_free" />
  <flow id="morn5_23700_24000_E_straight" type="civilianMix" route="r_E_to_W" begin="23700" end="24000" probability="0.02031253125" departLane="random" departSpeed="random" departPos="random_free" />
  <flow id="morn5_23700_24000_E_left" type="civilianMix" route="r_E_to_S" begin="23700" end="24000" probability="0.0084375" departLane="random" departSpeed="random" departPos="random_free" />
  <flow id="morn5_23700_24000_E_right" type="civilianMix" route="r_E_to_N" begin="23700" end="24000" probability="0.0084375" departLane="random" departSpeed="random" departPos="random_free" />
  <flow id="morn5_23700_24000_E_uturn" type="civilianMix" route="r_E_to_E" begin="23700" end="24000" probability="0.003046875" departLane="random" departSpeed="random" departPos="random_free" />
  <flow id="morn5_23700_24000_W_straight" type="civilianMix" route="r_W_to_E" begin="23700" end="24000" probability="0.02031253125" departLane="random" departSpeed="random" departPos="random_free" />
  <flow id="morn5_23700_24000_W_left" type="civilianMix" route="r_W_to_N" begin="23700" end="24000" probability="0.0084375" departLane="random" departSpeed="random" departPos="random_free" />
  <flow id="morn5_23700_24000_W_right" type="civilianMix" route="r_W_to_S" begin="23700" end="24000" probability="0.0084375" departLane="random" departSpeed="random" departPos="random_free" />
  <flow id="morn5_23700_24000_W_uturn" type="civilianMix" route="r_W_to_W" begin="23700" end="24000" probability="0.003046875" departLane="random" departSpeed="random" departPos="random_free" />
  <flow id="morn5_24000_24300_N_straight" type="civilianMix" route="r_N_to_S" begin="24000" end="24300" probability="0.0248698125" departLane="random" departSpeed="random" departPos="random_free" />
  <flow id="morn5_24000_24300_N_left" type="civilianMix" route="r_N_to_E" begin="24000" end="24300" probability="0.00994790625" departLane="random" departSpeed="random" departPos="random_free" />
  <flow id="morn5_24000_24300_N_right" type="civilianMix" route="r_N_to_W" begin="24000" end="24300" probability="0.00994790625" departLane="random" departSpeed="random" departPos="random_free" />
  <flow id="morn5_24000_24300_N_uturn" type="civilianMix" route="r_N_to_N" begin="24000" end="24300" probability="0.0036458437499999998" departLane="random" departSpeed="random" departPos="random_free" />
  <flow id="morn5_24000_24300_S_straight" type="civilianMix" route="r_S_to_N" begin="24000" end="24300" probability="0.0248698125" departLane="random" departSpeed="random" departPos="random_free" />
  <flow id="morn5_24000_24300_S_left" type="civilianMix" route="r_S_to_W" begin="24000" end="24300" probability="0.00994790625" departLane="random" departSpeed="random" departPos="random_free" />
  <flow id="morn5_24000_24300_S_right" type="civilianMix" route="r_S_to_E" begin="24000" end="24300" probability="0.00994790625" departLane="random" departSpeed="random" departPos="random_free" />
  <flow id="morn5_24000_24300_S_uturn" type="civilianMix" route="r_S_to_S" begin="24000" end="24300" probability="0.0036458437499999998" departLane="random" departSpeed="random" departPos="random_free" />
  <flow id="morn5_24000_24300_E_straight" type="civilianMix" route="r_E_to_W" begin="24000" end="24300" probability="0.0217708125" departLane="random" departSpeed="random" departPos="random_free" />