<?xml version='1.0' encoding='UTF-8'?>
<routes>
  <vTypeDistribution id="civilianMix">
    <vType id="moto" vClass="motorcycle" accel="2.6" decel="4.5" length="1.9" minGap="1.0" maxSpeed="16.0" sigma="0.5" speedFactor="normc(1.0,0.12,0.7,1.3)" color="0,255,0" probability="0.50" />
    <vType id="car" vClass="passenger" accel="2.6" decel="4.5" length="4.5" minGap="2.5" maxSpeed="20.0" sigma="0.5" speedFactor="normc(1.0,0.10,0.7,1.3)" color="255,0,0" probability="0.20" />
    <vType id="truck" vClass="truck" accel="1.3" decel="3.0" length="7.5" minGap="3.0" maxSpeed="16.0" sigma="0.6" speedFactor="normc(0.95,0.08,0.7,1.2)" color="255,165,0" probability="0.15" />
    <vType id="bus" vClass="bus" accel="1.2" decel="3.0" length="12.0" minGap="3.0" maxSpeed="16.0" sigma="0.6" speedFactor="normc(0.95,0.08,0.7,1.2)" color="0,128,255" probability="0.10" />
    <vType id="container" vClass="truck" accel="0.9" decel="2.5" length="14.0" minGap="3.5" maxSpeed="14.0" sigma="0.7" speedFactor="normc(0.9,0.07,0.7,1.15)" color="128,64,0" probability="0.04" />
    <vType id="emergency" vClass="emergency" accel="3.0" decel="5.0" length="5.0" minGap="1.5" maxSpeed="25.0" sigma="0.3" speedFactor="normc(1.1,0.05,0.9,1.2)" color="255,0,255" probability="0.01" />
  </vTypeDistribution>
  <route id="r_N_to_S" edges="N_in S_out" />
  <route id="r_N_to_E" edges="N_in E_out" />
  <route id="r_N_to_W" edges="N_in W_out" />
  <route id="r_N_to_N" edges="N_in N_out" />
  <route id="r_S_to_N" edges="S_in N_out" />
  <route id="r_S_to_W" edges="S_in W_out" />
  <route id="r_S_to_E" edges="S_in E_out" />
  <route id="r_S_to_S" edges="S_in S_out" />
  <route id="r_E_to_W" edges="E_in W_out" />
  <route id="r_E_to_S" edges="E_in S_out" />
  <route id="r_E_to_N" edges="E_in N_out" />
  <route id="r_E_to_E" edges="E_in E_out" />
  <route id="r_W_to_E" edges="W_in E_out" />
  <route id="r_W_to_N" edges="W_in N_out" />
  <route id="r_W_to_S" edges="W_in S_out" />
  <route id="r_W_to_W" edges="W_in W_out" />
  <flow id="flow_flatten_r_E_to_E" route="r_E_to_E" begin="0" end="3600" vehsPerHour="50" type="civilianMix" departLane="random" departSpeed="random" departPos="random_free" />
  <flow id="flow_flatten_r_E_to_N" route="r_E_to_N" begin="0" end="3600" vehsPerHour="97.59" type="civilianMix" departLane="random" departSpeed="random" departPos="random_free" />
  <flow id="flow_flatten_r_E_to_S" route="r_E_to_S" begin="0" end="3600" vehsPerHour="94.65" type="civilianMix" departLane="random" departSpeed="random" departPos="random_free" />
  <flow id="flow_flatten_r_E_to_W" route="r_E_to_W" begin="0" end="3600" vehsPerHour="246.24" type="civilianMix" departLane="random" departSpeed="random" departPos="random_free" />
  <flow id="flow_flatten_r_N_to_E" route="r_N_to_E" begin="0" end="3600" vehsPerHour="137.5" type="civilianMix" departLane="random" departSpeed="random" departPos="random_free" />
  <flow id="flow_flatten_r_N_to_N" route="r_N_to_N" begin="0" end="3600" vehsPerHour="68.04" type="civilianMix" departLane="random" departSpeed="random" departPos="random_free" />
  <flow id="flow_flatten_r_N_to_S" route="r_N_to_S" begin="0" end="3600" vehsPerHour="332.49" type="civilianMix" departLane="random" departSpeed="random" departPos="random_free" />
  <flow id="flow_flatten_r_N_to_W" route="r_N_to_W" begin="0" end="3600" vehsPerHour="131.47" type="civilianMix" departLane="random" departSpeed="random" departPos="random_free" />
  <flow id="flow_flatten_r_S_to_E" route="r_S_to_E" begin="0" end="3600" vehsPerHour="138.29" type="civilianMix" departLane="random" departSpeed="random" departPos="random_free" />
  <flow id="flow_flatten_r_S_to_N" route="r_S_to_N" begin="0" end="3600" vehsPerHour="339.69" type="civilianMix" departLane="random" departSpeed="random" departPos="random_free" />
  <flow id="flow_flatten_r_S_to_S" route="r_S_to_S" begin="0" end="3600" vehsPerHour="68.18" type="civilianMix" departLane="random" departSpeed="random" departPos="random_free" />
  <flow id="flow_flatten_r_S_to_W" route="r_S_to_W" begin="0" end="3600" vehsPerHour="134.34" type="civilianMix" departLane="random" departSpeed="random" departPos="random_free" />
  <flow id="flow_flatten_r_W_to_E" route="r_W_to_E" begin="0" end="3600" vehsPerHour="236.9" type="civilianMix" departLane="random" departSpeed="random" departPos="random_free" />
  <flow id="flow_flatten_r_W_to_N" route="r_W_to_N" begin="0" end="3600" vehsPerHour="91.99" type="civilianMix" departLane="random" departSpeed="random" departPos="random_free" />
  <flow id="flow_flatten_r_W_to_S" route="r_W_to_S" begin="0" end="3600" vehsPerHour="96.55" type="civilianMix" departLane="random" departSpeed="random" departPos="random_free" />
  <flow id="flow_flatten_r_W_to_W" route="r_W_to_W" begin="0" end="3600" vehsPerHour="50" type="civilianMix" departLane="random" departSpeed="random" departPos="random_free" />
</routes>